<?xml version="1.0" encoding="UTF-8"?>

<!-- generated on 2021-09-08 14:55:25 by Eclipse SUMO netedit Version 1.10.0
<configuration xmlns:xsi="http://www.w3.org/2001/XMLSchema-instance" xsi:noNamespaceSchemaLocation="http://sumo.dlr.de/xsd/netconvertConfiguration.xsd">

    <input>
        <sumo-net-file value="C:\Users\CIAD\Documents\SumoTest\NetworkCrossNoTraficLight\NetworkCrossNotraficLight.net.xml"/>
    </input>

    <output>
        <output-file value="C:\Users\CIAD\Documents\SumoTest\NetworkCrossNoTraficLight\NetworkCrossNotraficLight.net.xml"/>
    </output>

    <processing>
        <geometry.min-radius.fix.railways value="false"/>
        <geometry.max-grade.fix value="false"/>
        <offset.disable-normalization value="true"/>
        <lefthand value="false"/>
    </processing>

    <junctions>
        <no-turnarounds value="true"/>
        <junctions.corner-detail value="5"/>
        <junctions.limit-turn-speed value="5.5"/>
        <rectangular-lane-cut value="false"/>
    </junctions>

    <pedestrian>
        <walkingareas value="false"/>
    </pedestrian>

    <netedit>
        <route-files value="C:\Users\CIAD\Documents\SumoTest\NetworkCrossNoTraficLight\NetworkCrossNoTrafficLight.rou.xml"/>
    </netedit>

    <report>
        <aggregate-warnings value="5"/>
    </report>

</configuration>
-->

<routes xmlns:xsi="http://www.w3.org/2001/XMLSchema-instance" xsi:noNamespaceSchemaLocation="http://sumo.dlr.de/xsd/routes_file.xsd">
	<routeDistribution id="routedist1">
		<route edges="1to2 2to4" color="yellow" id="route_0" probability="0.33"/>
		<route edges="1to2 2to3" color="yellow" id="route_1" probability="0.33"/>
		<route edges="1to2 2to5" color="yellow" id="route_2" probability="0.34"/>
	</routeDistribution>
	
	<routeDistribution id="routedist2">
		<route edges="5to2 2to3" color="yellow" id="route_6" probability="0.33"/>
		<route edges="5to2 2to4" color="yellow" id="route_7" probability="0.33"/>
		<route edges="5to2 2to1" color="yellow" id="route_8" probability="0.34"/>
	</routeDistribution>
	
	<routeDistribution id="routedist3">
		<route edges="3to2 2to4" color="yellow" id="route_3" probability="0.33"/>
		<route edges="3to2 2to1" color="yellow" id="route_4" probability="0.33"/>
		<route edges="3to2 2to5" color="yellow" id="route_5" probability="0.34"/>
	</routeDistribution>
		
	<routeDistribution id="routedist4">
		<route edges="4to2 2to1" color="yellow" id="route_11" probability="0.33"/>
		<route edges="4to2 2to3" color="yellow" id="route_12" probability="0.33"/>
		<route edges="4to2 2to5" color="yellow" id="route_13" probability="0.34"/>
	</routeDistribution>
    
	<flow id="flow_0" begin="0.00" route="routedist1" end="3600.00" number="600" departSpeed="max"/>
    <flow id="flow_1" begin="0.00" route="routedist2" end="3600.00" number="600" departSpeed="max"/>
    <flow id="flow_2" begin="0.00" route="routedist3" end="3600.00" number="600" departSpeed="max"/>
    <flow id="flow_3" begin="0.00" route="routedist4" end="3600.00" number="600" departSpeed="max"/>
</routes>

