<?xml version="1.0" encoding="UTF-8"?>

<!-- generated on 2021-09-13 09:43:08 by Eclipse SUMO netedit Version 1.10.0
<configuration xmlns:xsi="http://www.w3.org/2001/XMLSchema-instance" xsi:noNamespaceSchemaLocation="http://sumo.dlr.de/xsd/netconvertConfiguration.xsd">

    <input>
        <sumo-net-file value="C:\Users\CIAD\Documents\SumoTest\NetworkCrossNoTraficLight\Net\NetworkCrossNotraficLight.net.xml"/>
    </input>

    <output>
        <output-file value="C:\Users\CIAD\Documents\SumoTest\NetworkCrossNoTraficLight\Net\NetworkCrossNotraficLight.net.xml"/>
    </output>

    <processing>
        <geometry.min-radius.fix.railways value="false"/>
        <geometry.max-grade.fix value="false"/>
        <offset.disable-normalization value="true"/>
        <lefthand value="false"/>
    </processing>

    <junctions>
        <no-turnarounds value="true"/>
        <junctions.corner-detail value="5"/>
        <junctions.limit-turn-speed value="5.5"/>
        <rectangular-lane-cut value="false"/>
    </junctions>

    <pedestrian>
        <walkingareas value="false"/>
    </pedestrian>

    <report>
        <aggregate-warnings value="5"/>
    </report>

</configuration>
-->

<net version="1.9" junctionCornerDetail="5" limitTurnSpeed="5.50" xmlns:xsi="http://www.w3.org/2001/XMLSchema-instance" xsi:noNamespaceSchemaLocation="http://sumo.dlr.de/xsd/net_file.xsd">

    <location netOffset="0.00,0.00" convBoundary="-100.00,-100.00,100.00,100.00" origBoundary="-10000000000.00,-10000000000.00,10000000000.00,10000000000.00" projParameter="!"/>

    <edge id=":2_0" function="internal">
        <lane id=":2_0_0" index="0" speed="6.51" length="9.03" shape="-1.60,7.20 -1.95,4.75 -3.00,3.00 -4.75,1.95 -7.20,1.60"/>
    </edge>
    <edge id=":2_1" function="internal">
        <lane id=":2_1_0" index="0" speed="13.89" length="14.40" shape="-1.60,7.20 -1.60,-7.20"/>
    </edge>
    <edge id=":2_2" function="internal">
        <lane id=":2_2_0" index="0" speed="8.00" length="5.93" shape="-1.60,7.20 -1.05,3.35 -0.00,1.60"/>
    </edge>
    <edge id=":2_12" function="internal">
        <lane id=":2_12_0" index="0" speed="8.00" length="8.26" shape="-0.00,1.60 0.60,0.60 3.35,-1.05 7.20,-1.60"/>
    </edge>
    <edge id=":2_3" function="internal">
        <lane id=":2_3_0" index="0" speed="6.51" length="9.03" shape="7.20,1.60 4.75,1.95 3.00,3.00 1.95,4.75 1.60,7.20"/>
    </edge>
    <edge id=":2_4" function="internal">
        <lane id=":2_4_0" index="0" speed="13.89" length="14.40" shape="7.20,1.60 -7.20,1.60"/>
    </edge>
    <edge id=":2_5" function="internal">
        <lane id=":2_5_0" index="0" speed="8.00" length="5.93" shape="7.20,1.60 3.35,1.05 1.60,0.00"/>
    </edge>
    <edge id=":2_13" function="internal">
        <lane id=":2_13_0" index="0" speed="8.00" length="8.26" shape="1.60,0.00 0.60,-0.60 -1.05,-3.35 -1.60,-7.20"/>
    </edge>
    <edge id=":2_6" function="internal">
        <lane id=":2_6_0" index="0" speed="6.51" length="9.03" shape="1.60,-7.20 1.95,-4.75 3.00,-3.00 4.75,-1.95 7.20,-1.60"/>
    </edge>
    <edge id=":2_7" function="internal">
        <lane id=":2_7_0" index="0" speed="13.89" length="14.40" shape="1.60,-7.20 1.60,7.20"/>
    </edge>
    <edge id=":2_8" function="internal">
        <lane id=":2_8_0" index="0" speed="8.00" length="5.93" shape="1.60,-7.20 1.05,-3.35 0.00,-1.60"/>
    </edge>
    <edge id=":2_14" function="internal">
        <lane id=":2_14_0" index="0" speed="8.00" length="8.26" shape="0.00,-1.60 -0.60,-0.60 -3.35,1.05 -7.20,1.60"/>
    </edge>
    <edge id=":2_9" function="internal">
        <lane id=":2_9_0" index="0" speed="6.51" length="9.03" shape="-7.20,-1.60 -4.75,-1.95 -3.00,-3.00 -1.95,-4.75 -1.60,-7.20"/>
    </edge>
    <edge id=":2_10" function="internal">
        <lane id=":2_10_0" index="0" speed="13.89" length="14.40" shape="-7.20,-1.60 7.20,-1.60"/>
    </edge>
    <edge id=":2_11" function="internal">
        <lane id=":2_11_0" index="0" speed="8.00" length="5.93" shape="-7.20,-1.60 -3.35,-1.05 -1.60,-0.00"/>
    </edge>
    <edge id=":2_15" function="internal">
        <lane id=":2_15_0" index="0" speed="8.00" length="8.26" shape="-1.60,-0.00 -0.60,0.60 1.05,3.35 1.60,7.20"/>
    </edge>

    <edge id="1to2" from="1" to="2" priority="-1">
        <lane id="1to2_0" index="0" speed="13.89" length="92.80" shape="-100.00,-1.60 -7.20,-1.60"/>
    </edge>
    <edge id="2to1" from="2" to="1" priority="-1">
        <lane id="2to1_0" index="0" speed="13.89" length="92.80" shape="-7.20,1.60 -100.00,1.60"/>
    </edge>
    <edge id="2to3" from="2" to="3" priority="-1">
        <lane id="2to3_0" index="0" speed="13.89" length="92.80" shape="7.20,-1.60 100.00,-1.60"/>
    </edge>
    <edge id="2to4" from="2" to="4" priority="-1">
        <lane id="2to4_0" index="0" speed="13.89" length="92.80" shape="1.60,7.20 1.60,100.00"/>
    </edge>
    <edge id="2to5" from="2" to="5" priority="-1">
        <lane id="2to5_0" index="0" speed="13.89" length="92.80" shape="-1.60,-7.20 -1.60,-100.00"/>
    </edge>
    <edge id="3to2" from="3" to="2" priority="-1">
        <lane id="3to2_0" index="0" speed="13.89" length="92.80" shape="100.00,1.60 7.20,1.60"/>
    </edge>
    <edge id="4to2" from="4" to="2" priority="-1">
        <lane id="4to2_0" index="0" speed="13.89" length="92.80" shape="-1.60,100.00 -1.60,7.20"/>
    </edge>
    <edge id="5to2" from="5" to="2" priority="-1">
        <lane id="5to2_0" index="0" speed="13.89" length="92.80" shape="1.60,-100.00 1.60,-7.20"/>
    </edge>

    <tlLogic id="2" type="static" programID="0" offset="0">
        <phase duration="100" state="GGgrrrGGgrrr"/>
        <phase duration="4"  state="yyyrrryyyrrr"/>
        <phase duration="100" state="rrrGGgrrrGGg"/>
        <phase duration="4"  state="rrryyyrrryyy"/>
    </tlLogic>

    <junction id="1" type="dead_end" x="-100.00" y="0.00" incLanes="2to1_0" intLanes="" shape="-100.00,0.00 -100.00,3.20 -100.00,0.00"/>
    <junction id="2" type="traffic_light" x="0.00" y="0.00" incLanes="4to2_0 3to2_0 5to2_0 1to2_0" intLanes=":2_0_0 :2_1_0 :2_12_0 :2_3_0 :2_4_0 :2_13_0 :2_6_0 :2_7_0 :2_14_0 :2_9_0 :2_10_0 :2_15_0" shape="-3.20,7.20 3.20,7.20 3.64,4.98 4.20,4.20 4.98,3.64 5.98,3.31 7.20,3.20 7.20,-3.20 4.98,-3.64 4.20,-4.20 3.64,-4.98 3.31,-5.98 3.20,-7.20 -3.20,-7.20 -3.64,-4.98 -4.20,-4.20 -4.98,-3.64 -5.98,-3.31 -7.20,-3.20 -7.20,3.20 -4.98,3.64 -4.20,4.20 -3.64,4.98 -3.31,5.98">
        <request index="0"  response="000000000000" foes="000100010000" cont="0"/>
        <request index="1"  response="100000100000" foes="111100110000" cont="0"/>
        <request index="2"  response="100011100000" foes="110011110000" cont="1"/>
        <request index="3"  response="000010000000" foes="100010000000" cont="0"/>
        <request index="4"  response="000110000111" foes="100110000111" cont="0"/>
        <request index="5"  response="011110000110" foes="011110000110" cont="1"/>
        <request index="6"  response="000000000000" foes="010000000100" cont="0"/>
        <request index="7"  response="100000100000" foes="110000111100" cont="0"/>
        <request index="8"  response="100000100011" foes="110000110011" cont="1"/>
        <request index="9"  response="000000000010" foes="000000100010" cont="0"/>
        <request index="10" response="000111000110" foes="000111100110" cont="0"/>
        <request index="11" response="000110011110" foes="000110011110" cont="1"/>
    </junction>
    <junction id="3" type="dead_end" x="100.00" y="0.00" incLanes="2to3_0" intLanes="" shape="100.00,0.00 100.00,-3.20 100.00,0.00"/>
    <junction id="4" type="dead_end" x="0.00" y="100.00" incLanes="2to4_0" intLanes="" shape="0.00,100.00 3.20,100.00 0.00,100.00"/>
    <junction id="5" type="dead_end" x="0.00" y="-100.00" incLanes="2to5_0" intLanes="" shape="0.00,-100.00 -3.20,-100.00 0.00,-100.00"/>

    <junction id=":2_12_0" type="internal" x="-0.00" y="1.60" incLanes=":2_2_0 5to2_0" intLanes=":2_4_0 :2_5_0 :2_6_0 :2_7_0 :2_10_0 :2_11_0"/>
    <junction id=":2_13_0" type="internal" x="1.60" y="0.00" incLanes=":2_5_0 1to2_0" intLanes=":2_1_0 :2_2_0 :2_7_0 :2_8_0 :2_9_0 :2_10_0"/>
    <junction id=":2_14_0" type="internal" x="0.00" y="-1.60" incLanes=":2_8_0 4to2_0" intLanes=":2_0_0 :2_1_0 :2_4_0 :2_5_0 :2_10_0 :2_11_0"/>
    <junction id=":2_15_0" type="internal" x="-1.60" y="-0.00" incLanes=":2_11_0 3to2_0" intLanes=":2_1_0 :2_2_0 :2_3_0 :2_4_0 :2_7_0 :2_8_0"/>

    <connection from="1to2" to="2to5" fromLane="0" toLane="0" via=":2_9_0" tl="2" linkIndex="9" dir="r" state="o"/>
    <connection from="1to2" to="2to3" fromLane="0" toLane="0" via=":2_10_0" tl="2" linkIndex="10" dir="s" state="o"/>
    <connection from="1to2" to="2to4" fromLane="0" toLane="0" via=":2_11_0" tl="2" linkIndex="11" dir="l" state="o"/>
    <connection from="3to2" to="2to4" fromLane="0" toLane="0" via=":2_3_0" tl="2" linkIndex="3" dir="r" state="o"/>
    <connection from="3to2" to="2to1" fromLane="0" toLane="0" via=":2_4_0" tl="2" linkIndex="4" dir="s" state="o"/>
    <connection from="3to2" to="2to5" fromLane="0" toLane="0" via=":2_5_0" tl="2" linkIndex="5" dir="l" state="o"/>
    <connection from="4to2" to="2to1" fromLane="0" toLane="0" via=":2_0_0" tl="2" linkIndex="0" dir="r" state="O"/>
    <connection from="4to2" to="2to5" fromLane="0" toLane="0" via=":2_1_0" tl="2" linkIndex="1" dir="s" state="O"/>
    <connection from="4to2" to="2to3" fromLane="0" toLane="0" via=":2_2_0" tl="2" linkIndex="2" dir="l" state="o"/>
    <connection from="5to2" to="2to3" fromLane="0" toLane="0" via=":2_6_0" tl="2" linkIndex="6" dir="r" state="O"/>
    <connection from="5to2" to="2to4" fromLane="0" toLane="0" via=":2_7_0" tl="2" linkIndex="7" dir="s" state="O"/>
    <connection from="5to2" to="2to1" fromLane="0" toLane="0" via=":2_8_0" tl="2" linkIndex="8" dir="l" state="o"/>

    <connection from=":2_0" to="2to1" fromLane="0" toLane="0" dir="r" state="M"/>
    <connection from=":2_1" to="2to5" fromLane="0" toLane="0" dir="s" state="M"/>
    <connection from=":2_2" to="2to3" fromLane="0" toLane="0" via=":2_12_0" dir="l" state="m"/>
    <connection from=":2_12" to="2to3" fromLane="0" toLane="0" dir="l" state="M"/>
    <connection from=":2_3" to="2to4" fromLane="0" toLane="0" dir="r" state="M"/>
    <connection from=":2_4" to="2to1" fromLane="0" toLane="0" dir="s" state="M"/>
    <connection from=":2_5" to="2to5" fromLane="0" toLane="0" via=":2_13_0" dir="l" state="m"/>
    <connection from=":2_13" to="2to5" fromLane="0" toLane="0" dir="l" state="M"/>
    <connection from=":2_6" to="2to3" fromLane="0" toLane="0" dir="r" state="M"/>
    <connection from=":2_7" to="2to4" fromLane="0" toLane="0" dir="s" state="M"/>
    <connection from=":2_8" to="2to1" fromLane="0" toLane="0" via=":2_14_0" dir="l" state="m"/>
    <connection from=":2_14" to="2to1" fromLane="0" toLane="0" dir="l" state="M"/>
    <connection from=":2_9" to="2to5" fromLane="0" toLane="0" dir="r" state="M"/>
    <connection from=":2_10" to="2to3" fromLane="0" toLane="0" dir="s" state="M"/>
    <connection from=":2_11" to="2to4" fromLane="0" toLane="0" via=":2_15_0" dir="l" state="m"/>
    <connection from=":2_15" to="2to4" fromLane="0" toLane="0" dir="l" state="M"/>

</net>
